w6z2ungz8v_0
                    3D
 Schrodinger Suite 2021-2.
 35 36  0  0  1  0            999 V2000
    9.3400    3.6424   23.6088 O   0  0  0  0  0  0
    8.3194    3.9671   24.2088 N   0  3  0  0  0  0
    7.5771    4.8601   23.8166 O   0  5  0  0  0  0
    7.9877    3.2586   25.4691 C   0  0  0  0  0  0
    8.9265    2.4120   26.0752 C   0  0  0  0  0  0
    8.6760    1.7739   27.2841 C   0  0  0  0  0  0
    7.4501    1.8849   27.9299 C   0  0  0  0  0  0
    7.2403    1.0156   29.4624 S   0  0  0  0  0  0
    6.2144    2.0179   30.5704 C   0  0  0  0  0  0
    6.7808    3.4157   30.8504 C   0  0  0  0  0  0
    5.8720    4.3253   31.6942 C   0  0  0  0  0  0
    4.6069    4.7820   30.9395 C   0  0  0  0  0  0
    3.8473    5.9314   31.6268 C   0  0  0  0  0  0
    3.1729    5.5505   32.9524 C   0  0  0  0  0  0
    2.6370    6.7144   33.5415 O   0  0  0  0  0  0
    6.4483    2.6668   27.3147 C   0  0  0  0  0  0
    5.1649    2.9071   27.7026 N   0  0  0  0  0  0
    4.6796    3.7687   26.7168 O   0  0  0  0  0  0
    5.6191    4.0674   25.7269 N   0  0  0  0  0  0
    6.7235    3.3613   26.1015 C   0  0  0  0  0  0
    9.8887    2.2464   25.6102 H   0  0  0  0  0  0
    9.4527    1.1718   27.7306 H   0  0  0  0  0  0
    6.1241    1.4671   31.5051 H   0  0  0  0  0  0
    5.2077    2.0705   30.1596 H   0  0  0  0  0  0
    7.7255    3.2836   31.3655 H   0  0  0  0  0  0
    7.0358    3.9189   29.9178 H   0  0  0  0  0  0
    6.4522    5.2003   31.9914 H   0  0  0  0  0  0
    5.6052    3.8261   32.6262 H   0  0  0  0  0  0
    4.8904    5.1174   29.9399 H   0  0  0  0  0  0
    3.9324    3.9382   30.7861 H   0  0  0  0  0  0
    4.5322    6.7648   31.7874 H   0  0  0  0  0  0
    3.0858    6.3061   30.9414 H   0  0  0  0  0  0
    2.4072    4.7878   32.7995 H   0  0  0  0  0  0
    3.8903    5.0966   33.6365 H   0  0  0  0  0  0
    1.8476    6.9668   33.0501 H   0  0  0  0  0  0
  1  2  2  0  0  0
  2  3  1  0  0  0
  2  4  1  0  0  0
  4  5  2  0  0  0
  4 20  1  0  0  0
  5  6  1  0  0  0
  5 21  1  0  0  0
  6  7  2  0  0  0
  6 22  1  0  0  0
  7  8  1  0  0  0
  7 16  1  0  0  0
  8  9  1  0  0  0
  9 10  1  0  0  0
  9 23  1  0  0  0
  9 24  1  0  0  0
 10 11  1  0  0  0
 10 25  1  0  0  0
 10 26  1  0  0  0
 11 12  1  0  0  0
 11 27  1  0  0  0
 11 28  1  0  0  0
 12 13  1  0  0  0
 12 29  1  0  0  0
 12 30  1  0  0  0
 13 14  1  0  0  0
 13 31  1  0  0  0
 13 32  1  0  0  0
 14 15  1  0  0  0
 14 33  1  0  0  0
 14 34  1  0  0  0
 15 35  1  0  0  0
 16 17  2  0  0  0
 16 20  1  0  0  0
 17 18  1  0  0  0
 18 19  1  0  0  0
 19 20  2  0  0  0
M  CHG  2   2   1   3  -1
M  END
$$$$
